Version 4.1
SHEET 1 880 680
SYMBOL nmos 208 112 R0
SYMATTR InstName M1
SYMBOL voltage -112 192 R0
SYMATTR InstName V1
SYMBOL voltage 112 192 R0
SYMATTR InstName V2
