.model IRLB8721PBF NMOS (LEVEL=3
+ VTO=2.65           ; Threshold Voltage (aus .SUBCKT)
+ KP=66.2            ; Transkonduktanz (aus .SUBCKT)
+ CGSO=9.78e-06      ; Source-Kapazität (aus .SUBCKT)
+ CGDO=3.25e-08      ; Drain-Kapazität (aus .SUBCKT)
+ RS=0.0042          ; Source-Widerstand (aus RS)
+ RD=0.0001          ; Drain-Widerstand (aus RD)
+ Rg=9.5             ; Gate-Widerstand (aus RG)
+ TOX=1e-7           ; Oxid-Dicke (angenommen Standardwert)
+ PHI=0.6            ; Bulk junction potential (angenommen)
+ GAMMA=0.4          ; Body-Effekt (angenommen)
+ ETA=0              ; Subthreshold-Modulation (nicht genutzt)
+ THETA=0            ; Mobility degradation (angenommen)
)
