Version 4
SHEET 1 1884 1040
WIRE -208 -192 -416 -192
WIRE -16 -192 -128 -192
WIRE 512 -192 304 -192
WIRE 704 -192 592 -192
WIRE 1216 -192 1008 -192
WIRE 1408 -192 1296 -192
WIRE -416 -112 -416 -192
WIRE -16 -112 -16 -192
WIRE 304 -112 304 -192
WIRE 704 -112 704 -192
WIRE 1008 -112 1008 -192
WIRE 1408 -112 1408 -192
WIRE -176 -32 -256 -32
WIRE -64 -32 -96 -32
WIRE 544 -32 464 -32
WIRE 656 -32 624 -32
WIRE 1248 -32 1168 -32
WIRE 1360 -32 1328 -32
WIRE -256 -16 -256 -32
WIRE 464 -16 464 -32
WIRE 1168 -16 1168 -32
WIRE -416 128 -416 -32
WIRE -256 128 -256 64
WIRE -256 128 -416 128
WIRE -112 128 -256 128
WIRE -16 128 -16 -16
WIRE -16 128 -112 128
WIRE 304 128 304 -32
WIRE 464 128 464 64
WIRE 464 128 304 128
WIRE 608 128 464 128
WIRE 704 128 704 -16
WIRE 704 128 608 128
WIRE 1008 128 1008 -32
WIRE 1168 128 1168 64
WIRE 1168 128 1008 128
WIRE 1312 128 1168 128
WIRE 1408 128 1408 -16
WIRE 1408 128 1312 128
WIRE -112 144 -112 128
WIRE 608 144 608 128
WIRE 1312 144 1312 128
FLAG -112 144 0
FLAG 608 144 0
FLAG 1312 144 0
SYMBOL nmos -64 -112 R0
SYMATTR InstName M1
SYMATTR Value IRLB8721PBF
SYMBOL voltage -416 -128 R0
WINDOW 123 0 0 Left 0
WINDOW 39 0 0 Left 0
WINDOW 3 43 51 Left 2
SYMATTR Value {V_sw_Infineon}
SYMATTR InstName V1
SYMBOL voltage -256 -32 R0
WINDOW 123 0 0 Left 0
WINDOW 39 0 0 Left 0
SYMATTR InstName V2
SYMATTR Value PULSE(0 15 0 1m 1m 1 2)
SYMBOL res -112 -208 R90
WINDOW 0 0 56 VBottom 2
WINDOW 3 32 56 VTop 2
SYMATTR InstName R1
SYMATTR Value 1
SYMBOL res -80 -48 R90
WINDOW 0 0 56 VBottom 2
WINDOW 3 32 56 VTop 2
SYMATTR InstName R2
SYMATTR Value 30
SYMBOL nmos 656 -112 R0
SYMATTR InstName M2
SYMATTR Value IRF840A
SYMBOL voltage 304 -128 R0
WINDOW 123 0 0 Left 0
WINDOW 39 0 0 Left 0
WINDOW 3 46 54 Left 2
SYMATTR Value {V_sw_Vishay}
SYMATTR InstName V3
SYMBOL voltage 464 -32 R0
WINDOW 123 0 0 Left 0
WINDOW 39 0 0 Left 0
SYMATTR InstName V4
SYMATTR Value PULSE(0 15 0 1m 1m 1 2)
SYMBOL res 608 -208 R90
WINDOW 0 0 56 VBottom 2
WINDOW 3 32 56 VTop 2
SYMATTR InstName R3
SYMATTR Value 20
SYMBOL res 640 -48 R90
WINDOW 0 0 56 VBottom 2
WINDOW 3 32 56 VTop 2
SYMATTR InstName R4
SYMATTR Value 30
SYMBOL nmos 1360 -112 R0
SYMATTR InstName M3
SYMATTR Value PHP79NQ08LT
SYMBOL voltage 1008 -128 R0
WINDOW 123 0 0 Left 0
WINDOW 39 0 0 Left 0
WINDOW 3 38 53 Left 2
SYMATTR Value {V_sw_Nexperia}
SYMATTR InstName V5
SYMBOL voltage 1168 -32 R0
WINDOW 123 0 0 Left 0
WINDOW 39 0 0 Left 0
SYMATTR InstName V6
SYMATTR Value PULSE(0 15 0 1m 1m 1 2)
SYMBOL res 1312 -208 R90
WINDOW 0 0 56 VBottom 2
WINDOW 3 32 56 VTop 2
SYMATTR InstName R5
SYMATTR Value 2
SYMBOL res 1344 -48 R90
WINDOW 0 0 56 VBottom 2
WINDOW 3 32 56 VTop 2
SYMATTR InstName R6
SYMATTR Value 30
TEXT -512 336 Left 2 !.tran 0 4 0 0.01
TEXT 200 336 Left 2 !.lib "PHP79NQ08LT.lib"
TEXT 200 360 Left 2 !.lib "IRF840A.lib"
TEXT 200 384 Left 2 !.lib IRLB8721PBF.lib
TEXT 240 -272 Left 2 ;Vishay
TEXT 992 -280 Left 2 ;Nexperia
TEXT -504 -280 Left 2 ;Infineon
TEXT -504 296 Left 2 ;Simulation
TEXT 192 296 Left 2 ;Mosfet Modelle
TEXT 920 296 Left 2 ;Schaltungsverluste:
TEXT -520 544 Left 2 ;Spannungsvariation
TEXT -512 576 Left 2 !.step param V_sw_Infineon list 5 8 11\n.step param V_sw_Vishay list 100 250 400\n.step param V_sw_Nexperia list 10 20 40
TEXT 928 320 Left 2 !.meas TRAN Psw_M1 AVG V(N002)*Id(M1) FROM 0 TO 3m\n.meas TRAN Psw_M2 AVG V(N004)*Id(M2) FROM 0 TO 3m\n.meas TRAN Psw_M3 AVG V(N006)*Id(M3) FROM 0 TO 3m\n \n.meas TRAN Vds_M1 PARAM V_sw_Infineon\n.meas TRAN Vds_M2 PARAM V_sw_Vishay\n.meas TRAN Vds_M3 PARAM V_sw_Nexperia
RECTANGLE Normal 912 272 176 -304 2
RECTANGLE Normal 176 272 -528 -304 2
RECTANGLE Normal 1632 272 912 -304 2
RECTANGLE Normal 176 528 -528 272 2
RECTANGLE Normal 912 528 176 272 2
RECTANGLE Normal 1632 528 912 272 2
RECTANGLE Normal 176 768 -528 528 2
