Version 4
SHEET 1 1704 680
WIRE -208 -192 -416 -192
WIRE -16 -192 -128 -192
WIRE 512 -192 304 -192
WIRE 704 -192 592 -192
WIRE 1216 -192 1008 -192
WIRE 1408 -192 1296 -192
WIRE -416 -112 -416 -192
WIRE -16 -112 -16 -192
WIRE 304 -112 304 -192
WIRE 704 -112 704 -192
WIRE 1008 -112 1008 -192
WIRE 1408 -112 1408 -192
WIRE -176 -32 -256 -32
WIRE -64 -32 -96 -32
WIRE 544 -32 464 -32
WIRE 656 -32 624 -32
WIRE 1248 -32 1168 -32
WIRE 1360 -32 1328 -32
WIRE -256 -16 -256 -32
WIRE 464 -16 464 -32
WIRE 1168 -16 1168 -32
WIRE -416 128 -416 -32
WIRE -256 128 -256 64
WIRE -256 128 -416 128
WIRE -112 128 -256 128
WIRE -16 128 -16 -16
WIRE -16 128 -112 128
WIRE 304 128 304 -32
WIRE 464 128 464 64
WIRE 464 128 304 128
WIRE 608 128 464 128
WIRE 704 128 704 -16
WIRE 704 128 608 128
WIRE 1008 128 1008 -32
WIRE 1168 128 1168 64
WIRE 1168 128 1008 128
WIRE 1312 128 1168 128
WIRE 1408 128 1408 -16
WIRE 1408 128 1312 128
WIRE -112 144 -112 128
WIRE 608 144 608 128
WIRE 1312 144 1312 128
FLAG -112 144 0
FLAG 608 144 0
FLAG 1312 144 0
SYMBOL nmos -64 -112 R0
SYMATTR InstName IRLB8721PBF
SYMATTR Value IRLB8721PBF
SYMBOL voltage -416 -128 R0
WINDOW 123 0 0 Left 0
WINDOW 39 0 0 Left 0
SYMATTR InstName V1
SYMATTR Value 30
SYMBOL voltage -256 -32 R0
WINDOW 123 0 0 Left 0
WINDOW 39 0 0 Left 0
SYMATTR InstName V2
SYMATTR Value PULSE(0 15 0 1m 1m 1 2)
SYMBOL res -112 -208 R90
WINDOW 0 0 56 VBottom 2
WINDOW 3 32 56 VTop 2
SYMATTR InstName R1
SYMATTR Value 1000k
SYMBOL res -80 -48 R90
WINDOW 0 0 56 VBottom 2
WINDOW 3 32 56 VTop 2
SYMATTR InstName R2
SYMATTR Value 30
SYMBOL nmos 656 -112 R0
SYMATTR InstName IRF840A
SYMATTR Value IRF840A
SYMBOL voltage 304 -128 R0
WINDOW 123 0 0 Left 0
WINDOW 39 0 0 Left 0
SYMATTR InstName V3
SYMATTR Value 30
SYMBOL voltage 464 -32 R0
WINDOW 123 0 0 Left 0
WINDOW 39 0 0 Left 0
SYMATTR InstName V4
SYMATTR Value PULSE(0 15 0 1m 1m 1 2)
SYMBOL res 608 -208 R90
WINDOW 0 0 56 VBottom 2
WINDOW 3 32 56 VTop 2
SYMATTR InstName R3
SYMATTR Value 1000k
SYMBOL res 640 -48 R90
WINDOW 0 0 56 VBottom 2
WINDOW 3 32 56 VTop 2
SYMATTR InstName R4
SYMATTR Value 30
SYMBOL nmos 1360 -112 R0
SYMATTR InstName PHP79NQ08LT
SYMATTR Value PHP79NQ08LT
SYMBOL voltage 1008 -128 R0
WINDOW 123 0 0 Left 0
WINDOW 39 0 0 Left 0
SYMATTR InstName V5
SYMATTR Value 30
SYMBOL voltage 1168 -32 R0
WINDOW 123 0 0 Left 0
WINDOW 39 0 0 Left 0
SYMATTR InstName V6
SYMATTR Value PULSE(0 15 0 1m 1m 1 2)
SYMBOL res 1312 -208 R90
WINDOW 0 0 56 VBottom 2
WINDOW 3 32 56 VTop 2
SYMATTR InstName R5
SYMATTR Value 1000k
SYMBOL res 1344 -48 R90
WINDOW 0 0 56 VBottom 2
WINDOW 3 32 56 VTop 2
SYMATTR InstName R6
SYMATTR Value 30
TEXT -464 296 Left 2 !.tran 0 10 0 0.01
TEXT 392 352 Left 2 !.model IRLB8721PBF NMOS(Level=3 Vto=2.65 Kp=66.2 Rd=4m Rs=4m)
TEXT 392 384 Left 2 !.model IRF840A NMOS(Level=3 Vto=3.0 Kp=45 Rd=0.5 Rs=0.5)
TEXT 392 416 Left 2 !.model PHP79NQ08LT NMOS(Level=3 Vto=1.5 Kp=120 Rd=5m Rs=5m)
